Version 4
SHEET 1 1172 680
WIRE 320 112 240 112
WIRE 368 112 320 112
WIRE 400 112 368 112
WIRE 544 112 480 112
WIRE 544 128 544 112
WIRE 544 176 544 128
WIRE 368 224 368 112
WIRE 464 224 368 224
WIRE 560 240 560 224
WIRE 368 256 368 224
WIRE 288 304 240 304
WIRE 560 304 384 304
WIRE 704 304 560 304
FLAG 160 112 0
FLAG 320 32 0
FLAG 160 304 0
FLAG 784 304 0
SYMBOL voltage 256 112 R90
WINDOW 3 -68 35 VRight 2
WINDOW 123 0 0 Left 0
WINDOW 39 0 0 Left 0
SYMATTR InstName V1
SYMATTR Value PULSE(0 5 2 0.01 0.01 2 4.02 4)
SYMBOL res 304 16 R0
SYMATTR InstName R1
SYMATTR Value 10k
SYMBOL res 496 96 R90
WINDOW 0 0 56 VBottom 2
WINDOW 3 32 56 VTop 2
SYMATTR InstName R2
SYMATTR Value 2k
SYMBOL cap 608 112 R90
WINDOW 0 0 32 VBottom 2
WINDOW 3 32 32 VTop 2
SYMATTR InstName C1
SYMATTR Value 10µ
SYMBOL nmos 464 176 M90
SYMATTR InstName M1
SYMATTR Value rq5E035bn
SYMATTR Prefix X
SYMBOL pmos 288 256 M90
SYMATTR InstName M2
SYMATTR Value Si3421DV
SYMATTR Prefix X
SYMBOL schottky 544 240 R0
SYMATTR InstName D1
SYMATTR Value MBR0530L
SYMATTR Description Diode
SYMATTR Type diode
SYMBOL voltage 256 304 R90
WINDOW 0 -32 56 VBottom 2
WINDOW 3 32 56 VTop 2
WINDOW 123 0 0 Left 0
WINDOW 39 0 0 Left 0
SYMATTR InstName V2
SYMATTR Value 3.2
SYMBOL res 800 288 R90
WINDOW 0 0 56 VBottom 2
WINDOW 3 32 56 VTop 2
SYMATTR InstName R3
SYMATTR Value 5k
TEXT -88 456 Left 2 !.lib "D:\\Users\\Morgan Diepart\\Documents\\GitHub\\FencingTester\\LTSpice - Simulations\\rq5E035bn.lib"
TEXT -88 504 Left 2 !.lib "D:\\Users\\Morgan Diepart\\Documents\\GitHub\\FencingTester\\LTSpice - Simulations\\Si3421DV_PS.LIB"
TEXT -150 524 Left 2 !.tran 10
