Version 4
SHEET 1 956 680
WIRE 448 -736 240 -736
WIRE 608 -688 512 -688
WIRE 720 -688 688 -688
WIRE 240 -672 240 -736
WIRE 240 -672 144 -672
WIRE 240 -608 144 -608
WIRE 320 -608 240 -608
WIRE 240 -576 240 -608
WIRE 608 -560 384 -560
WIRE 720 -560 688 -560
WIRE 240 -480 240 -512
WIRE 240 -480 144 -480
WIRE 448 -480 240 -480
WIRE 240 -448 240 -480
WIRE 608 -432 512 -432
WIRE 720 -432 688 -432
WIRE 240 -368 240 -384
WIRE 240 -368 144 -368
WIRE 320 -368 240 -368
WIRE 240 -336 240 -368
WIRE 608 -320 384 -320
WIRE 720 -320 688 -320
WIRE 240 -256 240 -272
WIRE 240 -256 144 -256
WIRE 448 -256 240 -256
WIRE 240 -224 240 -256
WIRE 608 -208 512 -208
WIRE 720 -208 688 -208
WIRE 240 -144 240 -160
WIRE 240 -144 144 -144
WIRE 320 -144 240 -144
WIRE 240 -112 240 -144
WIRE 608 -96 384 -96
WIRE 720 -96 688 -96
WIRE 240 -32 240 -48
WIRE 240 -32 144 -32
WIRE 448 -32 240 -32
WIRE 240 0 240 -32
WIRE 720 0 688 0
WIRE 608 16 608 0
WIRE 608 16 512 16
WIRE 608 32 608 16
WIRE 720 32 688 32
WIRE 240 80 240 64
WIRE 240 80 144 80
WIRE 320 80 240 80
WIRE 240 128 240 80
WIRE 608 128 384 128
WIRE 720 128 688 128
WIRE 240 208 240 192
WIRE 240 208 144 208
WIRE 448 208 240 208
WIRE 240 240 240 208
WIRE 608 256 512 256
WIRE 720 256 688 256
WIRE 240 320 240 304
WIRE 240 320 144 320
WIRE 320 320 240 320
WIRE 608 368 384 368
WIRE 720 368 688 368
FLAG 512 -784 5V
FLAG 384 -656 5V
FLAG 512 -528 5V
FLAG 384 -416 5V
FLAG 512 -304 5V
FLAG 384 -192 5V
FLAG 512 -80 5V
FLAG 384 32 5V
FLAG 512 160 5V
FLAG 384 272 5V
FLAG -320 -336 5V
FLAG -320 -256 0
FLAG 784 -688 0
FLAG 784 -560 0
FLAG 784 -432 0
FLAG 784 -320 0
FLAG 784 -208 0
FLAG 784 -96 0
FLAG 784 0 0
FLAG 784 32 0
FLAG 784 128 0
FLAG 784 256 0
FLAG 784 368 0
FLAG 144 -32 5V
SYMBOL schottky 256 64 R180
WINDOW 0 24 64 Left 2
WINDOW 3 24 0 Left 2
SYMATTR InstName D4
SYMATTR Value MBR0530L
SYMATTR Description Diode
SYMATTR Type diode
SYMBOL npn 320 -416 R0
SYMATTR InstName Q7
SYMATTR Value BC817-25
SYMBOL npn 448 -784 R0
SYMATTR InstName Q10
SYMATTR Value BC817-25
SYMBOL voltage -320 -352 R0
WINDOW 123 0 0 Left 0
WINDOW 39 0 0 Left 0
SYMATTR InstName V1
SYMATTR Value 5
SYMBOL res 704 -704 R90
WINDOW 0 0 56 VBottom 2
WINDOW 3 32 56 VTop 2
SYMATTR InstName R1
SYMATTR Value 330
SYMBOL res 704 -576 R90
WINDOW 0 0 56 VBottom 2
WINDOW 3 32 56 VTop 2
SYMATTR InstName R2
SYMATTR Value 330
SYMBOL res 704 -448 R90
WINDOW 0 0 56 VBottom 2
WINDOW 3 32 56 VTop 2
SYMATTR InstName R3
SYMATTR Value 330
SYMBOL res 704 -336 R90
WINDOW 0 0 56 VBottom 2
WINDOW 3 32 56 VTop 2
SYMATTR InstName R4
SYMATTR Value 330
SYMBOL res 704 -224 R90
WINDOW 0 0 56 VBottom 2
WINDOW 3 32 56 VTop 2
SYMATTR InstName R5
SYMATTR Value 330
SYMBOL res 704 -112 R90
WINDOW 0 0 56 VBottom 2
WINDOW 3 32 56 VTop 2
SYMATTR InstName R6
SYMATTR Value 330
SYMBOL res 704 -16 R90
WINDOW 0 9 103 VBottom 2
WINDOW 3 32 56 VTop 2
SYMATTR InstName R7
SYMATTR Value 330
SYMBOL res 704 16 R90
WINDOW 0 44 97 VBottom 2
WINDOW 3 32 56 VTop 2
SYMATTR InstName R8
SYMATTR Value 330
SYMBOL res 704 112 R90
WINDOW 0 0 56 VBottom 2
WINDOW 3 32 56 VTop 2
SYMATTR InstName R9
SYMATTR Value 330
SYMBOL res 704 240 R90
WINDOW 0 0 56 VBottom 2
WINDOW 3 32 56 VTop 2
SYMATTR InstName R10
SYMATTR Value 330
SYMBOL res 704 352 R90
WINDOW 0 0 56 VBottom 2
WINDOW 3 32 56 VTop 2
SYMATTR InstName R11
SYMATTR Value 330
SYMBOL LED 720 -672 R270
WINDOW 0 72 32 VTop 2
WINDOW 3 0 32 VBottom 2
SYMATTR InstName D1
SYMATTR Value NSPW500BS
SYMBOL LED 720 -544 R270
WINDOW 0 72 32 VTop 2
WINDOW 3 0 32 VBottom 2
SYMATTR InstName D11
SYMATTR Value NSPW500BS
SYMBOL LED 720 -416 R270
WINDOW 0 72 32 VTop 2
WINDOW 3 0 32 VBottom 2
SYMATTR InstName D12
SYMATTR Value NSPW500BS
SYMBOL LED 720 -304 R270
WINDOW 0 72 32 VTop 2
WINDOW 3 0 32 VBottom 2
SYMATTR InstName D13
SYMATTR Value NSPW500BS
SYMBOL LED 720 -192 R270
WINDOW 0 72 32 VTop 2
WINDOW 3 0 32 VBottom 2
SYMATTR InstName D14
SYMATTR Value NSPW500BS
SYMBOL LED 720 -80 R270
WINDOW 0 72 32 VTop 2
WINDOW 3 0 32 VBottom 2
SYMATTR InstName D21
SYMATTR Value NSPW500BS
SYMBOL LED 720 16 R270
WINDOW 0 72 32 VTop 2
WINDOW 3 0 32 VBottom 2
SYMATTR InstName D22
SYMATTR Value NSPW500BS
SYMBOL LED 720 48 R270
WINDOW 0 72 32 VTop 2
WINDOW 3 0 32 VBottom 2
SYMATTR InstName D23
SYMATTR Value NSPW500BS
SYMBOL LED 720 144 R270
WINDOW 0 72 32 VTop 2
WINDOW 3 0 32 VBottom 2
SYMATTR InstName D24
SYMATTR Value NSPW500BS
SYMBOL LED 720 272 R270
WINDOW 0 72 32 VTop 2
WINDOW 3 0 32 VBottom 2
SYMATTR InstName D25
SYMATTR Value NSPW500BS
SYMBOL LED 720 384 R270
WINDOW 0 72 32 VTop 2
WINDOW 3 0 32 VBottom 2
SYMATTR InstName D15
SYMATTR Value NSPW500BS
SYMBOL npn 320 -656 R0
SYMATTR InstName Q1
SYMATTR Value BC817-25
SYMBOL npn 448 -528 R0
SYMATTR InstName Q2
SYMATTR Value BC817-25
SYMBOL npn 448 -304 R0
SYMATTR InstName Q3
SYMATTR Value BC817-25
SYMBOL npn 448 -80 R0
SYMATTR InstName Q4
SYMATTR Value BC817-25
SYMBOL npn 448 160 R0
SYMATTR InstName Q5
SYMATTR Value BC817-25
SYMBOL npn 320 272 R0
SYMATTR InstName Q6
SYMATTR Value BC817-25
SYMBOL npn 320 32 R0
SYMATTR InstName Q8
SYMATTR Value BC817-25
SYMBOL npn 320 -192 R0
SYMATTR InstName Q9
SYMATTR Value BC817-25
SYMBOL schottky 256 192 R180
WINDOW 0 24 64 Left 2
WINDOW 3 24 0 Left 2
SYMATTR InstName D2
SYMATTR Value MBR0530L
SYMATTR Description Diode
SYMATTR Type diode
SYMBOL schottky 256 304 R180
WINDOW 0 24 64 Left 2
WINDOW 3 24 0 Left 2
SYMATTR InstName D3
SYMATTR Value MBR0530L
SYMATTR Description Diode
SYMATTR Type diode
SYMBOL schottky 256 -48 R180
WINDOW 0 24 64 Left 2
WINDOW 3 24 0 Left 2
SYMATTR InstName D5
SYMATTR Value MBR0530L
SYMATTR Description Diode
SYMATTR Type diode
SYMBOL schottky 256 -160 R180
WINDOW 0 24 64 Left 2
WINDOW 3 24 0 Left 2
SYMATTR InstName D6
SYMATTR Value MBR0530L
SYMATTR Description Diode
SYMATTR Type diode
SYMBOL schottky 256 -272 R180
WINDOW 0 24 64 Left 2
WINDOW 3 24 0 Left 2
SYMATTR InstName D7
SYMATTR Value MBR0530L
SYMATTR Description Diode
SYMATTR Type diode
SYMBOL schottky 256 -384 R180
WINDOW 0 24 64 Left 2
WINDOW 3 24 0 Left 2
SYMATTR InstName D8
SYMATTR Value MBR0530L
SYMATTR Description Diode
SYMATTR Type diode
SYMBOL schottky 256 -512 R180
WINDOW 0 24 64 Left 2
WINDOW 3 24 0 Left 2
SYMATTR InstName D9
SYMATTR Value MBR0530L
SYMATTR Description Diode
SYMATTR Type diode
SYMBOL schottky 256 -608 R180
WINDOW 0 24 64 Left 2
WINDOW 3 24 0 Left 2
SYMATTR InstName D10
SYMATTR Value MBR0530L
SYMATTR Description Diode
SYMATTR Type diode
TEXT -352 416 Left 2 !.tran 1
