Version 4
SHEET 1 1328 680
WIRE 544 -1664 368 -1664
WIRE 672 -1664 624 -1664
WIRE 816 -1664 736 -1664
WIRE 816 -1648 816 -1664
WIRE 352 -1584 352 -1616
WIRE 352 -1584 176 -1584
WIRE 384 -1584 352 -1584
WIRE 384 -1536 384 -1584
WIRE 384 -1472 368 -1472
WIRE 544 -1472 384 -1472
WIRE 672 -1472 624 -1472
WIRE 816 -1472 736 -1472
WIRE 816 -1456 816 -1472
WIRE 352 -1392 352 -1424
WIRE 352 -1392 176 -1392
WIRE 384 -1392 352 -1392
WIRE 384 -1344 384 -1392
WIRE 384 -1280 368 -1280
WIRE 544 -1280 384 -1280
WIRE 672 -1280 624 -1280
WIRE 816 -1280 736 -1280
WIRE 816 -1264 816 -1280
WIRE 352 -1200 352 -1232
WIRE 352 -1200 176 -1200
WIRE 384 -1200 352 -1200
WIRE 384 -1152 384 -1200
WIRE 384 -1088 368 -1088
WIRE 544 -1088 384 -1088
WIRE 672 -1088 624 -1088
WIRE 816 -1088 736 -1088
WIRE 816 -1072 816 -1088
WIRE 352 -1008 352 -1040
WIRE 352 -1008 176 -1008
WIRE 384 -1008 352 -1008
WIRE 384 -960 384 -1008
WIRE 384 -896 368 -896
WIRE 544 -896 384 -896
WIRE 672 -896 624 -896
WIRE 816 -896 736 -896
WIRE 816 -880 816 -896
WIRE 352 -816 352 -848
WIRE 352 -816 176 -816
WIRE 384 -816 352 -816
WIRE 384 -768 384 -816
WIRE 384 -704 368 -704
WIRE 544 -704 384 -704
WIRE 672 -704 624 -704
WIRE 816 -704 736 -704
WIRE 816 -688 816 -704
WIRE 352 -624 352 -656
WIRE 352 -624 176 -624
WIRE 384 -624 352 -624
WIRE 384 -576 384 -624
WIRE 384 -512 368 -512
WIRE 512 -512 384 -512
WIRE 544 -512 512 -512
WIRE 672 -512 624 -512
WIRE 816 -512 736 -512
WIRE 816 -496 816 -512
WIRE 512 -448 512 -512
WIRE 544 -448 512 -448
WIRE 672 -448 624 -448
WIRE 816 -448 736 -448
WIRE 352 -432 352 -464
WIRE 352 -432 176 -432
WIRE 384 -432 352 -432
WIRE 816 -432 816 -448
WIRE 384 -384 384 -432
WIRE 384 -320 368 -320
WIRE 544 -320 384 -320
WIRE 672 -320 624 -320
WIRE 816 -320 736 -320
WIRE 816 -304 816 -320
WIRE 352 -240 352 -272
WIRE 352 -240 176 -240
WIRE 384 -240 352 -240
WIRE 384 -192 384 -240
WIRE 384 -128 368 -128
WIRE 544 -128 384 -128
WIRE 672 -128 624 -128
WIRE 816 -128 736 -128
WIRE 816 -112 816 -128
WIRE 352 -48 352 -80
WIRE 352 -48 176 -48
WIRE 384 -48 352 -48
WIRE 384 0 384 -48
WIRE 384 64 368 64
WIRE 544 64 384 64
WIRE 672 64 624 64
WIRE 816 64 736 64
WIRE 816 80 816 64
WIRE 352 144 352 112
WIRE 352 144 176 144
FLAG 272 64 5V
FLAG -240 32 5V
FLAG -240 112 0
FLAG 272 -128 5V
FLAG 272 -320 5V
FLAG 272 -512 5V
FLAG 272 -704 5V
FLAG 272 -896 5V
FLAG 272 -1088 5V
FLAG 272 -1280 5V
FLAG 272 -1472 5V
FLAG 272 -1664 5V
FLAG 816 80 0
FLAG 816 -112 0
FLAG 816 -304 0
FLAG 816 -496 0
FLAG 816 -688 0
FLAG 816 -880 0
FLAG 816 -1072 0
FLAG 816 -1264 0
FLAG 816 -1456 0
FLAG 816 -1648 0
FLAG 816 -432 0
FLAG 176 -624 5V
SYMBOL schottky 400 64 R180
WINDOW 0 24 64 Left 2
WINDOW 3 -131 30 Left 2
SYMATTR InstName D1
SYMATTR Value MBR0530L
SYMATTR Description Diode
SYMATTR Type diode
SYMBOL nmos 272 112 R270
WINDOW 3 -11 -61 VRight 2
SYMATTR InstName M1
SYMATTR Value rq5E035bn
SYMATTR Prefix X
SYMBOL voltage -240 16 R0
WINDOW 123 0 0 Left 0
WINDOW 39 0 0 Left 0
SYMATTR InstName V1
SYMATTR Value 5
SYMBOL schottky 400 -128 R180
WINDOW 0 24 64 Left 2
WINDOW 3 -131 30 Left 2
SYMATTR InstName D2
SYMATTR Value MBR0530L
SYMATTR Description Diode
SYMATTR Type diode
SYMBOL nmos 272 -80 R270
WINDOW 3 -11 -61 VRight 2
SYMATTR InstName M2
SYMATTR Value rq5E035bn
SYMATTR Prefix X
SYMBOL schottky 400 -320 R180
WINDOW 0 24 64 Left 2
WINDOW 3 -131 30 Left 2
SYMATTR InstName D3
SYMATTR Value MBR0530L
SYMATTR Description Diode
SYMATTR Type diode
SYMBOL nmos 272 -272 R270
WINDOW 3 -11 -61 VRight 2
SYMATTR InstName M3
SYMATTR Value rq5E035bn
SYMATTR Prefix X
SYMBOL schottky 400 -512 R180
WINDOW 0 24 64 Left 2
WINDOW 3 -131 30 Left 2
SYMATTR InstName D4
SYMATTR Value MBR0530L
SYMATTR Description Diode
SYMATTR Type diode
SYMBOL nmos 272 -464 R270
WINDOW 3 -11 -61 VRight 2
SYMATTR InstName M4
SYMATTR Value rq5E035bn
SYMATTR Prefix X
SYMBOL schottky 400 -704 R180
WINDOW 0 24 64 Left 2
WINDOW 3 -131 30 Left 2
SYMATTR InstName D5
SYMATTR Value MBR0530L
SYMATTR Description Diode
SYMATTR Type diode
SYMBOL nmos 272 -656 R270
WINDOW 3 -11 -61 VRight 2
SYMATTR InstName M5
SYMATTR Value rq5E035bn
SYMATTR Prefix X
SYMBOL schottky 400 -896 R180
WINDOW 0 24 64 Left 2
WINDOW 3 -131 30 Left 2
SYMATTR InstName D6
SYMATTR Value MBR0530L
SYMATTR Description Diode
SYMATTR Type diode
SYMBOL nmos 272 -848 R270
WINDOW 3 -11 -61 VRight 2
SYMATTR InstName M6
SYMATTR Value rq5E035bn
SYMATTR Prefix X
SYMBOL schottky 400 -1088 R180
WINDOW 0 24 64 Left 2
WINDOW 3 -131 30 Left 2
SYMATTR InstName D7
SYMATTR Value MBR0530L
SYMATTR Description Diode
SYMATTR Type diode
SYMBOL nmos 272 -1040 R270
WINDOW 3 -11 -61 VRight 2
SYMATTR InstName M7
SYMATTR Value rq5E035bn
SYMATTR Prefix X
SYMBOL schottky 400 -1280 R180
WINDOW 0 24 64 Left 2
WINDOW 3 -131 30 Left 2
SYMATTR InstName D8
SYMATTR Value MBR0530L
SYMATTR Description Diode
SYMATTR Type diode
SYMBOL nmos 272 -1232 R270
WINDOW 3 -11 -61 VRight 2
SYMATTR InstName M8
SYMATTR Value rq5E035bn
SYMATTR Prefix X
SYMBOL schottky 400 -1472 R180
WINDOW 0 24 64 Left 2
WINDOW 3 -131 30 Left 2
SYMATTR InstName D9
SYMATTR Value MBR0530L
SYMATTR Description Diode
SYMATTR Type diode
SYMBOL nmos 272 -1424 R270
WINDOW 3 -11 -61 VRight 2
SYMATTR InstName M9
SYMATTR Value rq5E035bn
SYMATTR Prefix X
SYMBOL nmos 272 -1616 R270
WINDOW 3 -11 -61 VRight 2
SYMATTR InstName M10
SYMATTR Value rq5E035bn
SYMATTR Prefix X
SYMBOL res 640 48 R90
WINDOW 0 0 56 VBottom 2
WINDOW 3 32 56 VTop 2
SYMATTR InstName R1
SYMATTR Value 330
SYMBOL LED 672 80 R270
WINDOW 0 72 32 VTop 2
WINDOW 3 0 32 VBottom 2
SYMATTR InstName D10
SYMATTR Value NSPW500BS
SYMBOL res 640 -144 R90
WINDOW 0 0 56 VBottom 2
WINDOW 3 32 56 VTop 2
SYMATTR InstName R2
SYMATTR Value 330
SYMBOL LED 672 -112 R270
WINDOW 0 72 32 VTop 2
WINDOW 3 0 32 VBottom 2
SYMATTR InstName D11
SYMATTR Value NSPW500BS
SYMBOL res 640 -336 R90
WINDOW 0 0 56 VBottom 2
WINDOW 3 32 56 VTop 2
SYMATTR InstName R3
SYMATTR Value 330
SYMBOL LED 672 -304 R270
WINDOW 0 72 32 VTop 2
WINDOW 3 0 32 VBottom 2
SYMATTR InstName D12
SYMATTR Value NSPW500BS
SYMBOL res 640 -528 R90
WINDOW 0 0 56 VBottom 2
WINDOW 3 32 56 VTop 2
SYMATTR InstName R4
SYMATTR Value 330
SYMBOL LED 672 -496 R270
WINDOW 0 72 32 VTop 2
WINDOW 3 0 32 VBottom 2
SYMATTR InstName D13
SYMATTR Value NSPW500BS
SYMBOL res 640 -720 R90
WINDOW 0 0 56 VBottom 2
WINDOW 3 32 56 VTop 2
SYMATTR InstName R5
SYMATTR Value 330
SYMBOL LED 672 -688 R270
WINDOW 0 72 32 VTop 2
WINDOW 3 0 32 VBottom 2
SYMATTR InstName D14
SYMATTR Value NSPW500BS
SYMBOL res 640 -912 R90
WINDOW 0 0 56 VBottom 2
WINDOW 3 32 56 VTop 2
SYMATTR InstName R6
SYMATTR Value 330
SYMBOL LED 672 -880 R270
WINDOW 0 72 32 VTop 2
WINDOW 3 0 32 VBottom 2
SYMATTR InstName D15
SYMATTR Value NSPW500BS
SYMBOL res 640 -1104 R90
WINDOW 0 0 56 VBottom 2
WINDOW 3 32 56 VTop 2
SYMATTR InstName R7
SYMATTR Value 330
SYMBOL LED 672 -1072 R270
WINDOW 0 72 32 VTop 2
WINDOW 3 0 32 VBottom 2
SYMATTR InstName D16
SYMATTR Value NSPW500BS
SYMBOL res 640 -1296 R90
WINDOW 0 0 56 VBottom 2
WINDOW 3 32 56 VTop 2
SYMATTR InstName R8
SYMATTR Value 330
SYMBOL LED 672 -1264 R270
WINDOW 0 72 32 VTop 2
WINDOW 3 0 32 VBottom 2
SYMATTR InstName D17
SYMATTR Value NSPW500BS
SYMBOL res 640 -1488 R90
WINDOW 0 0 56 VBottom 2
WINDOW 3 32 56 VTop 2
SYMATTR InstName R9
SYMATTR Value 330
SYMBOL LED 672 -1456 R270
WINDOW 0 72 32 VTop 2
WINDOW 3 0 32 VBottom 2
SYMATTR InstName D18
SYMATTR Value NSPW500BS
SYMBOL res 640 -1680 R90
WINDOW 0 0 56 VBottom 2
WINDOW 3 32 56 VTop 2
SYMATTR InstName R10
SYMATTR Value 330
SYMBOL LED 672 -1648 R270
WINDOW 0 72 32 VTop 2
WINDOW 3 0 32 VBottom 2
SYMATTR InstName D19
SYMATTR Value NSPW500BS
SYMBOL res 640 -464 R90
WINDOW 0 0 56 VBottom 2
WINDOW 3 32 56 VTop 2
SYMATTR InstName R11
SYMATTR Value 330
SYMBOL LED 672 -432 R270
WINDOW 0 72 32 VTop 2
WINDOW 3 0 32 VBottom 2
SYMATTR InstName D20
SYMATTR Value NSPW500BS
TEXT 112 280 Left 2 !.lib "D:\\Users\\Morgan Diepart\\Documents\\GitHub\\FencingTester\\LTSpice - Simulations\\rq5E035bn.lib"
TEXT 110 300 Left 2 !.tran 15
