* RQ5E035BN NMOSFET model
* PKG: TSMT3,Vdss=30V,Id=3.5A
* Rds(on)=28mĦ,Qg=6.0nC
* Model Generated by ROHM
* All Rights Reserved
* Commercial Use or 
* Resale Restricted
* Date: 2015/08/31
******************D G S
.SUBCKT RQ5E035BN 1 2 3
M1   11 22 3 3 MOS_N
D1         3 1 DDS
R1        1 11 RTH 11.2m
D2       22 11 DDG
R2        2 22 2.0
.MODEL MOS_N NMOS
+ LEVEL=3
+ L=2.0000E-6
+ W=1
+ KP=41.860E-6
+ RS=11.060E-3
+ RD=0
+ VTO=2.1684
+ RDS=30.000E6
+ TOX=2.0000E-6
+ CGSO=189p
+ CGDO=20p
+ CBD=0
+ RG=0
+ N=2
+ RB=1.0000E-3
+ GAMMA=0.3
+ ETA=0.0008
+ KAPPA=0
+ NFS=17G
.MODEL DDS D
+ IS=314.45E-15
+ N=1.0209
+ RS=6.0821E-3
+ IKF=1.0557
+ CJO=50.418E-12
+ M=.71676
+ VJ=.60928
+ BV=30
+ TT=10.3n
.MODEL DDG D
+ CJO=139.94E-12
+ M=.67512
+ VJ=.59206
+ N=10000
+ FC=-1.4
.MODEL RTH RES
+ TC1=0.0153
+ TC2=0.000013
.ENDS RQ5E035BN
